[General]
network = Network
sim-time-limit = 640800s
seed-set=${repetition}
num-rngs = 3
*.Server.rng-2=2
*.JobProducer.rng-0=0
*.JobProducer.rng-1=1 

[Config Average-service-time-constant]
**.exponentialDistribution = false
**.TurnServiceRatio = ${0.1,1,10}
**.Vacation = ${0.1s,1s,10s}
repeat=1

[Config Average-service-time-exponential]
**.exponentialDistribution = true
**.TurnServiceRatio = ${0.1,1,10}
**.Vacation = ${0.1s,1s,10s}
repeat=10

[Config stability-constant]
**.exponentialDistribution = false
**.TurnServiceRatio = ${0.1,1,10}
**.Vacation = ${0.1s,1s,10s}
repeat=1

[Config stability-exponential]
**.TurnServiceRatio = 10
**.Vacation = 10s
**.exponentialDistribution = true
repeat=10


[Config continuity-test]
**.TurnServiceRatio = ${4.9,5,5.1}
**.Vacation = ${0.4s,0.5s,0.6s} 
**.exponentialDistribution = true
repeat=5

[Config warm-up]
**.TurnServiceRatio = 0.1 #worst case
**.exponentialDistribution = true
**.Vacation = 10s #worst case
repeat=10

[Config Analysis-RT-constant]
warmup-period=200000s
**.TurnServiceRatio = ${0.1,1,10}
**.Vacation = ${0.1s,0.5s,1s,5s,10s}
**.exponentialDistribution = false
repeat=1

[Config Analysis-RT-exponential]
warmup-period=200000s
**.TurnServiceRatio = ${0.1,10}
**.Vacation = ${0.1s,0.5s,1s,5s,10s}
**.exponentialDistribution = true
repeat=10



[Config Model-Validation]
**.exponentialDistribution = true
**.TurnServiceRatio = ${0.1 , 1 , 10}
**.Vacation = ${0.1s, 1s , 10s}
**.ro = ${0.5 , 1 ,2}
repeat=10


[Config Full-Cov]
warmup-period=200000s
**.exponentialDistribution = true
**.TurnServiceRatio = ${0.1,0.4,0.7,1,2,3,4,5,6,7,8,9,10}
**.Vacation = ${0.1s,0.4s,0.7s,1s,2s,3s,4s,5s,6s,7s,8s,9s,10s}
repeat=10


[Config ECDFs]
warmup-period=200000s
**.exponentialDistribution = true
**.TurnServiceRatio = ${0.1,0.3,0.6,1,2,3,4,5,6,7,8,9,10}
**.Vacation = ${10s}
repeat=5


[Config Memoryless]
warmup-period=200000s
**.exponentialDistribution = true
**.TurnServiceRatio = ${10,100}
**.Vacation = 10s
repeat=10

[Config Queue-size]
warmup-period=200000s
**.exponentialDistribution = false
**.TurnServiceRatio = 2
**.Vacation = 10s
repeat=1

[Config N]
**.exponentialDistribution = false
**.TurnServiceRatio = 10
**.Vacation = 10s
repeat=1
